&NAM_DATA_ISBA         NTIME = 12 ,
                       XUNIF_VEGTYPE(1)     = 0.,
                       XUNIF_VEGTYPE(2)     = 0.,
                       XUNIF_VEGTYPE(3)     = 0.,
                       XUNIF_VEGTYPE(4)     = 0.,
                       XUNIF_VEGTYPE(5)     = 0.,
                       XUNIF_VEGTYPE(6)     = 0.,
                       XUNIF_VEGTYPE(7)     = 0.,
                       XUNIF_VEGTYPE(8)     = 0.,
                       XUNIF_VEGTYPE(9)     = 0.,
                       XUNIF_VEGTYPE(10)    = 0.,
                       XUNIF_VEGTYPE(11)    = 0.,
                       XUNIF_VEGTYPE(12)    = 1.,
                       XUNIF_VEGTYPE(13)    = 0.,
                       XUNIF_VEGTYPE(14)    = 0.,
                       XUNIF_VEGTYPE(15)    = 0.,
                       XUNIF_VEGTYPE(16)    = 0.,
                       XUNIF_VEGTYPE(17)    = 0.,
                       XUNIF_VEGTYPE(18)    = 0.,
                       XUNIF_VEGTYPE(19)    = 0.,
                       XUNIF_VEG(1,1)       = .95,
                       XUNIF_VEG(1,2)       = .95,
                       XUNIF_VEG(1,3)       = .95,
                       XUNIF_VEG(1,4)       = .95,
                       XUNIF_VEG(1,5)       = .95,
                       XUNIF_VEG(1,6)       = .95,
                       XUNIF_VEG(1,7)       = .95,
                       XUNIF_VEG(1,8)       = .95,
                       XUNIF_VEG(1,9)       = .95,
                       XUNIF_VEG(1,10)      = .95,
                       XUNIF_VEG(1,11)      = .95,
                       XUNIF_VEG(1,12)      = .95,
                       XUNIF_LAI(1,1)       = 0.1,
                       XUNIF_LAI(1,2)       = 0.1,
                       XUNIF_LAI(1,3)       = 0.1,
                       XUNIF_LAI(1,4)       = 0.1,
                       XUNIF_LAI(1,5)       = 2.6,
                       XUNIF_LAI(1,6)       = 4.0,
                       XUNIF_LAI(1,7)       = 4.3,
                       XUNIF_LAI(1,8)       = 3.8,
                       XUNIF_LAI(1,9)       = 2.9,
                       XUNIF_LAI(1,10)      = 1.5,
                       XUNIF_LAI(1,11)      = 0.4,
                       XUNIF_LAI(1,12)      = 0.1,
                       XUNIF_Z0(1,1)        = 0.05,
                       XUNIF_Z0(1,2)        = 0.05,
                       XUNIF_Z0(1,3)        = 0.05,
                       XUNIF_Z0(1,4)        = 0.05,
                       XUNIF_Z0(1,5)        = 0.05,
                       XUNIF_Z0(1,6)        = 0.05,
                       XUNIF_Z0(1,7)        = 0.05,
                       XUNIF_Z0(1,8)        = 0.05,
                       XUNIF_Z0(1,9)        = 0.05,
                       XUNIF_Z0(1,10)       = 0.05,
                       XUNIF_Z0(1,11)       = 0.05,
                       XUNIF_Z0(1,12)       = 0.05,
                       XUNIF_EMIS(1,1)      = 0.98,
                       XUNIF_EMIS(1,2)      = 0.98,
                       XUNIF_EMIS(1,3)      = 0.98,
                       XUNIF_EMIS(1,4)      = 0.98,
                       XUNIF_EMIS(1,5)      = 0.98,
                       XUNIF_EMIS(1,6)      = 0.98,
                       XUNIF_EMIS(1,7)      = 0.98,
                       XUNIF_EMIS(1,8)      = 0.98,
                       XUNIF_EMIS(1,9)      = 0.98,
                       XUNIF_EMIS(1,10)     = 0.98,
                       XUNIF_EMIS(1,11)     = 0.98,
                       XUNIF_EMIS(1,12)     = 0.98,
                       XUNIF_DG(1,1)          = 0.10000000000000000D-01,
                       XUNIF_DG(1,2)          = 0.40000000000000001D-01,
                       XUNIF_DG(1,3)          = 0.10000000000000001D+00,
                       XUNIF_DG(1,4)          = 0.20000000000000001D+00,
                       XUNIF_DG(1,5)          = 0.40000000000000002D+00,
                       XUNIF_DG(1,6)          = 0.59999999999999998D+00,
                       XUNIF_DG(1,7)          = 0.80000000000000004D+00,
                       XUNIF_DG(1,8)          = 0.10000000000000000D+01,
                       XUNIF_DG(1,9)          = 0.15000000000000000D+01,
                       XUNIF_DG(1,10)          = 0.20000000000000000D+01,
                       XUNIF_DG(1,11)          = 0.30000000000000000D+01,
                       XUNIF_DG(1,12)          = 0.50000000000000000D+01,
                       XUNIF_DG(1,13)          = 0.80000000000000000D+01,
                       XUNIF_DG(1,14)          = 0.12000000000000000D+02,
                       XUNIF_ROOTFRAC(1,1)  = 0.54803459999999998D-01,
                       XUNIF_ROOTFRAC(1,2)  = 0.20133772999999999D+00,
                       XUNIF_ROOTFRAC(1,3)  = 0.42794398000000000D+00,
                       XUNIF_ROOTFRAC(1,4)  = 0.66812364999999996D+00,
                       XUNIF_ROOTFRAC(1,5)  = 0.88161285000000000D+00,
                       XUNIF_ROOTFRAC(1,6)  = 0.95453089000000002D+00,
                       XUNIF_ROOTFRAC(1,7)  = 0.98398490000000005D+00,
                       XUNIF_ROOTFRAC(1,8)  = 0.10000000000000000D+01,
                       XUNIF_ROOTFRAC(1,9)  = 0.10000000000000000D+21,
                       XUNIF_ROOTFRAC(1,10)  = 0.10000000000000000D+21,
                       XUNIF_ROOTFRAC(1,11)  = 0.10000000000000000D+21,
                       XUNIF_ROOTFRAC(1,12)  = 0.10000000000000000D+21,
                       XUNIF_ROOTFRAC(1,13)  = 0.10000000000000000D+21,
                       XUNIF_ROOTFRAC(1,14)  = 0.10000000000000000D+21,
                       XUNIF_RSMIN(1)       = 40.,
                       XUNIF_GAMMA(1)       = 0.0,
                       XUNIF_WRMAX_CF(1)    = 0.2,
                       XUNIF_RGL(1)         = 100.,
                       XUNIF_CV(1)          = 0.00002,
                       XUNIF_Z0_O_Z0H(1)    = 10.,
                       XUNIF_ALBNIR_VEG(1,1)  = 0.3,
                       XUNIF_ALBNIR_VEG(1,2)  = 0.3,
                       XUNIF_ALBNIR_VEG(1,3)  = 0.3,
                       XUNIF_ALBNIR_VEG(1,4)  = 0.3,
                       XUNIF_ALBNIR_VEG(1,5)  = 0.3,
                       XUNIF_ALBNIR_VEG(1,6)  = 0.3,
                       XUNIF_ALBNIR_VEG(1,7)  = 0.3,
                       XUNIF_ALBNIR_VEG(1,8)  = 0.3,
                       XUNIF_ALBNIR_VEG(1,9)  = 0.3,
                       XUNIF_ALBNIR_VEG(1,10)  = 0.3,
                       XUNIF_ALBNIR_VEG(1,11)  = 0.3,
                       XUNIF_ALBNIR_VEG(1,12)  = 0.3,
                       XUNIF_ALBVIS_VEG(1,1)  = 0.1,
                       XUNIF_ALBVIS_VEG(1,2)  = 0.1,
                       XUNIF_ALBVIS_VEG(1,3)  = 0.1,
                       XUNIF_ALBVIS_VEG(1,4)  = 0.1,
                       XUNIF_ALBVIS_VEG(1,5)  = 0.1,
                       XUNIF_ALBVIS_VEG(1,6)  = 0.1,
                       XUNIF_ALBVIS_VEG(1,7)  = 0.1,
                       XUNIF_ALBVIS_VEG(1,8)  = 0.1,
                       XUNIF_ALBVIS_VEG(1,9)  = 0.1,
                       XUNIF_ALBVIS_VEG(1,10)  = 0.1,
                       XUNIF_ALBVIS_VEG(1,11)  = 0.1,
                       XUNIF_ALBVIS_VEG(1,12)  = 0.1,
                       XUNIF_ALBUV_VEG(1,1)   = 0.0425,
                       XUNIF_ALBUV_VEG(1,2)   = 0.0425,
                       XUNIF_ALBUV_VEG(1,3)   = 0.0425,
                       XUNIF_ALBUV_VEG(1,4)   = 0.0425,
                       XUNIF_ALBUV_VEG(1,5)   = 0.0425,
                       XUNIF_ALBUV_VEG(1,6)   = 0.0425,
                       XUNIF_ALBUV_VEG(1,7)   = 0.0425,
                       XUNIF_ALBUV_VEG(1,8)   = 0.0425,
                       XUNIF_ALBUV_VEG(1,9)   = 0.0425,
                       XUNIF_ALBUV_VEG(1,10)   = 0.0425,
                       XUNIF_ALBUV_VEG(1,11)   = 0.0425,
                       XUNIF_ALBUV_VEG(1,12)   = 0.0425,
                       XUNIF_ALBNIR_SOIL(1,1) = 0.3,
                       XUNIF_ALBNIR_SOIL(1,2) = 0.3,
                       XUNIF_ALBNIR_SOIL(1,3) = 0.3,
                       XUNIF_ALBNIR_SOIL(1,4) = 0.3,
                       XUNIF_ALBNIR_SOIL(1,5) = 0.3,
                       XUNIF_ALBNIR_SOIL(1,6) = 0.3,
                       XUNIF_ALBNIR_SOIL(1,7) = 0.3,
                       XUNIF_ALBNIR_SOIL(1,8) = 0.3,
                       XUNIF_ALBNIR_SOIL(1,9) = 0.3,
                       XUNIF_ALBNIR_SOIL(1,10) = 0.3,
                       XUNIF_ALBNIR_SOIL(1,11) = 0.3,
                       XUNIF_ALBNIR_SOIL(1,12) = 0.3,
                       XUNIF_ALBVIS_SOIL(1,1) = 0.1,
                       XUNIF_ALBVIS_SOIL(1,2) = 0.1,
                       XUNIF_ALBVIS_SOIL(1,3) = 0.1,
                       XUNIF_ALBVIS_SOIL(1,4) = 0.1,
                       XUNIF_ALBVIS_SOIL(1,5) = 0.1,
                       XUNIF_ALBVIS_SOIL(1,6) = 0.1,
                       XUNIF_ALBVIS_SOIL(1,7) = 0.1,
                       XUNIF_ALBVIS_SOIL(1,8) = 0.1,
                       XUNIF_ALBVIS_SOIL(1,9) = 0.1,
                       XUNIF_ALBVIS_SOIL(1,10) = 0.1,
                       XUNIF_ALBVIS_SOIL(1,11) = 0.1,
                       XUNIF_ALBVIS_SOIL(1,12) = 0.1,
                       XUNIF_ALBUV_SOIL(1,1)  = 0.06,
                       XUNIF_ALBUV_SOIL(1,2)  = 0.06,
                       XUNIF_ALBUV_SOIL(1,3)  = 0.06,
                       XUNIF_ALBUV_SOIL(1,4)  = 0.06,
                       XUNIF_ALBUV_SOIL(1,5)  = 0.06,
                       XUNIF_ALBUV_SOIL(1,6)  = 0.06,
                       XUNIF_ALBUV_SOIL(1,7)  = 0.06,
                       XUNIF_ALBUV_SOIL(1,8)  = 0.06,
                       XUNIF_ALBUV_SOIL(1,9)  = 0.06,
                       XUNIF_ALBUV_SOIL(1,10)  = 0.06,
                       XUNIF_ALBUV_SOIL(1,11)  = 0.06,
                       XUNIF_ALBUV_SOIL(1,12)  = 0.06,
                       XUNIF_GMES(1)        = 0.02,
                       XUNIF_RE25(1)        = 0.00000036,
                       XUNIF_BSLAI(1)       = 0.36,
                       XUNIF_LAIMIN(1)      = 0.3,
                       XUNIF_SEFOLD(1)      = 7776000.,
                       XUNIF_GC(1)          = 0.00025,
                       XUNIF_DMAX(1)        = 0.1,
                       XUNIF_F2I(1)         = 0.3,
!                       XUNIF_H_TREE(1)      = 12.5,
                       XUNIF_CE_NITRO(1)    = 3.79,
                       XUNIF_CF_NITRO(1)    = 9.84,
                       XUNIF_CNA_NITRO(1)   = 1.3,
/
&NAM_FRAC
                       LECOCLIMAP = F,
                       XUNIF_SEA    = 0.,
                       XUNIF_WATER  = 0.,
                       XUNIF_TOWN   = 0.,
                       XUNIF_NATURE = 1.
/
&NAM_PGD_GRID          CGRID = 'LONLAT REG' 
/
&NAM_LONLAT_REG        XLONMIN = 26.638        , 
                       XLONMAX = 26.638       , 
                       XLATMIN = 67.362          , 
                       XLATMAX = 67.362          , 
                       NLON    = 1            , 
                       NLAT    = 1 
/
&NAM_PGD_SCHEMES       CNATURE = 'ISBA  '    , 
                       CSEA    = 'NONE  '    , 
                       CTOWN   = 'NONE  '    , 
                       CWATER  = 'NONE  ' 
/
&NAM_PGD_ARRANGE_COVER  LWATER_TO_NATURE = T ,
                        LTOWN_TO_ROCK    = T
/
&NAM_ZS                XUNIF_ZS  = 179.
/
&NAM_ISBA
                       XUNIF_CLAY    = 0.10          ,
                       XUNIF_SAND    = 0.90          ,
	               XUNIF_RUNOFFB = 0.20           ,
                       CPEDO_FUNCTION= 'CO84'        ,
                       CISBA         = 'DIF'         ,
                       CPHOTO        = 'NON'         ,
                       NPATCH        = 1             ,
                       NGROUND_LAYER = 14           ,
                       CALBEDO    = "DRY"      ,
/
&NAM_PREP_SURF_ATM NYEAR  = 2008,
                   NMONTH = 1,
                   NDAY   = 1,
                   XTIME  = 600. 
/
&NAM_PREP_ISBA
                   XHUG_SURF = 0.2,
                   XHUG_ROOT = 0.2,
                   XHUG_DEEP = 0.5,
                   XHUGI_SURF = 0.15,
                   XHUGI_ROOT = 0.15,
                   XHUGI_DEEP = 0.0,
                   XTG_SURF  = 271.15,
                   XTG_ROOT  = 273.15,
                   XTG_DEEP  = 276.15,
/
&NAM_PREP_ISBA_SNOW
!                       CSNOW = '3-L',
!                       NSNOW_LAYER = 12,
                       CSNOW = 'CRO',
                       NSNOW_LAYER = 30,
                       XWSNOW = 72.5,
                       XRSNOW = 250.,
                       XTSNOW = 268.15,
                       XSG1SNOW=-90.0,
                       XSG2SNOW=50.0,
                       XHISTSNOW=0.0,
                       XAGESNOW=3.0,
/
&NAM_IO_OFFLINE        LPRINT  = T                       ,
                       CFORCING_FILETYPE =    'ASCII '   ,
                       CSURF_FILETYPE =       'ASCII '   ,
!                       CSURF_FILETYPE =       'NC'   ,
!                       CTIMESERIES_FILETYPE = 'TEXTE '   ,
                       CTIMESERIES_FILETYPE = 'NETCDF'   ,
                       XTSTEP_SURF = 600.                ,
                       XTSTEP_OUTPUT = 86400.            ,
!                       XTSTEP_OUTPUT = 3600.
/
&NAM_DIAG_SURFn
                       LSURF_BUDGET = T      , 
!                       LSURF_BUDGETC = T      , 
                       N2M          = 2      ,
                       LCOEF        = T      ,
                       LSURF_VARS   = T
/
&NAM_DIAG_SURF_ATMn    LFRAC        = T 
/
&NAM_DIAG_ISBAn        LPGD              = T , 
                       LSURF_EVAP_BUDGET = T , 
                       LSURF_MISC_BUDGET = T ,
                       LPROSNOW = T
/
&NAM_DIAG_TEBn         LSURF_MISC_BUDGET = T 
/
&NAM_SGH_ISBAn         CRUNOFF    = "DT92"
                       CRAIN    = 'SGH '     ,
                       CHORT    = 'DEF'      ,
/
&NAM_ISBAn
                       CSCOND     = "PL98"     ,
                       CC1DRY     = 'DEF '     ,
                       CSOILFRZ   = 'LWT'      ,
                       CDIFSFCOND = 'DEF '     ,
                       CSNOWRES   = 'RIL'      ,
                       CCPSURF    = 'DRY' 
/
