&NAM_DATA_ISBA         NTIME = 12 ,
                       XUNIF_VEGTYPE(1)     = 0.,
                       XUNIF_VEGTYPE(2)     = 0.,
                       XUNIF_VEGTYPE(3)     = 0.,
                       XUNIF_VEGTYPE(4)     = 0.,
                       XUNIF_VEGTYPE(5)     = 0.5,
                       XUNIF_VEGTYPE(6)     = 0.,
                       XUNIF_VEGTYPE(7)     = 0.,
                       XUNIF_VEGTYPE(8)     = 0.,
                       XUNIF_VEGTYPE(9)     = 0.,
                       XUNIF_VEGTYPE(10)    = 0.,
                       XUNIF_VEGTYPE(11)    = 0.,
                       XUNIF_VEGTYPE(12)    = 0.5,
                       XUNIF_VEGTYPE(13)    = 0.,
                       XUNIF_VEGTYPE(14)    = 0.,
                       XUNIF_VEGTYPE(15)    = 0.,
                       XUNIF_VEGTYPE(16)    = 0.,
                       XUNIF_VEGTYPE(17)    = 0.,
                       XUNIF_VEGTYPE(18)    = 0.,
                       XUNIF_VEGTYPE(19)    = 0.,
                       XUNIF_VEG(12,1)       = 0.95,
                       XUNIF_VEG(12,2)       = 0.95,
                       XUNIF_VEG(12,3)       = 0.95,
                       XUNIF_VEG(12,4)       = 0.95,
                       XUNIF_VEG(12,5)       = 0.95,
                       XUNIF_VEG(12,6)       = 0.95,
                       XUNIF_VEG(12,7)       = 0.95,
                       XUNIF_VEG(12,8)       = 0.95,
                       XUNIF_VEG(12,9)       = 0.95,
                       XUNIF_VEG(12,10)      = 0.95,
                       XUNIF_VEG(12,11)      = 0.95,
                       XUNIF_VEG(12,12)      = 0.95,
                       XUNIF_VEG(5,1)	    = 0.5,
                       XUNIF_VEG(5,2)       = 0.5,
                       XUNIF_VEG(5,3)       = 0.5,
                       XUNIF_VEG(5,4)       = 0.5,
                       XUNIF_VEG(5,5)       = 0.5,
                       XUNIF_VEG(5,6)       = 0.5,
                       XUNIF_VEG(5,7)       = 0.5,
                       XUNIF_VEG(5,8)       = 0.5,
                       XUNIF_VEG(5,9)       = 0.5,
                       XUNIF_VEG(5,10)      = 0.5,
                       XUNIF_VEG(5,11)      = 0.5,
                       XUNIF_VEG(5,12)      = 0.5,
                       XUNIF_LAI(12,1)        = 0.1 
                       XUNIF_LAI(12,2)        = 0.8
                       XUNIF_LAI(12,3)        = 1.5
                       XUNIF_LAI(12,4)        = 2.
                       XUNIF_LAI(12,5)        = 3.
                       XUNIF_LAI(12,6)        = 4.
                       XUNIF_LAI(12,7)        = 5.
                       XUNIF_LAI(12,8)        = 6.
                       XUNIF_LAI(12,9)        = 3.8
                       XUNIF_LAI(12,10)        = 2.5
                       XUNIF_LAI(12,11)        = 1.7
                       XUNIF_LAI(12,12)        = 0.5
		       XUNIF_LAI(5,1)        = 1.2 
                       XUNIF_LAI(5,2)        = 1.2
                       XUNIF_LAI(5,3)        = 1.2
                       XUNIF_LAI(5,4)        = 1.2
                       XUNIF_LAI(5,5)        = 1.2
                       XUNIF_LAI(5,6)        = 1.2
                       XUNIF_LAI(5,7)        = 1.2
                       XUNIF_LAI(5,8)        = 1.2
                       XUNIF_LAI(5,9)        = 1.2
                       XUNIF_LAI(5,10)        = 1.2
                       XUNIF_LAI(5,11)        = 1.2
                       XUNIF_LAI(5,12)        = 1.2
                       XUNIF_Z0(12,1)        = 0.05
                       XUNIF_Z0(12,2)        = 0.05
                       XUNIF_Z0(12,3)        = 0.05
                       XUNIF_Z0(12,4)        = 0.05
                       XUNIF_Z0(12,5)        = 0.05
                       XUNIF_Z0(12,6)        = 0.05
                       XUNIF_Z0(12,7)        = 0.05
                       XUNIF_Z0(12,8)        = 0.05
                       XUNIF_Z0(12,9)        = 0.05
                       XUNIF_Z0(12,10)        = 0.05
                       XUNIF_Z0(12,11)        = 0.05
                       XUNIF_Z0(12,12)        = 0.05
	       	       XUNIF_Z0(5,1)        = 1.10,
                       XUNIF_Z0(5,2)        = 1.10,
                       XUNIF_Z0(5,3)        = 1.10,
                       XUNIF_Z0(5,4)        = 1.10,
                       XUNIF_Z0(5,5)        = 1.10,
                       XUNIF_Z0(5,6)        = 1.10,
                       XUNIF_Z0(5,7)        = 1.10,
                       XUNIF_Z0(5,8)        = 1.10,
                       XUNIF_Z0(5,9)        = 1.10,
                       XUNIF_Z0(5,10)       = 1.10,
                       XUNIF_Z0(5,11)       = 1.10,
                       XUNIF_Z0(5,12)       = 1.10,
                       XUNIF_H_TREE(5)      = 12.1,
                       XUNIF_EMIS(1,1)      = 0.98,
                       XUNIF_EMIS(1,2)      = 0.98,
                       XUNIF_EMIS(1,3)      = 0.98,
                       XUNIF_EMIS(1,4)      = 0.98,
                       XUNIF_EMIS(1,5)      = 0.98,
                       XUNIF_EMIS(1,6)      = 0.98,
                       XUNIF_EMIS(1,7)      = 0.98,
                       XUNIF_EMIS(1,8)      = 0.98,
                       XUNIF_EMIS(1,9)      = 0.98,
                       XUNIF_EMIS(1,10)     = 0.98,
                       XUNIF_EMIS(1,11)     = 0.98,
                       XUNIF_EMIS(1,12)     = 0.98,
                       XUNIF_DG(1,1)          = 0.10000000000000000D-01,
                       XUNIF_DG(1,2)          = 0.40000000000000001D-01,
                       XUNIF_DG(1,3)          = 0.10000000000000001D+00,
                       XUNIF_DG(1,4)          = 0.20000000000000001D+00,
                       XUNIF_DG(1,5)          = 0.40000000000000002D+00,
                       XUNIF_DG(1,6)          = 0.59999999999999998D+00,
                       XUNIF_DG(1,7)          = 0.80000000000000004D+00,
                       XUNIF_DG(1,8)          = 0.10000000000000000D+01,
                       XUNIF_DG(1,9)          = 0.15000000000000000D+01,
                       XUNIF_DG(1,10)          = 0.20000000000000000D+01,
                       XUNIF_DG(1,11)          = 0.30000000000000000D+01,
                       XUNIF_DG(1,12)          = 0.50000000000000000D+01,
                       XUNIF_DG(1,13)          = 0.80000000000000000D+01,
                       XUNIF_DG(1,14)          = 0.12000000000000000D+02,
                       XUNIF_ROOTFRAC(5,1)  = 0.54400430000000000D-01,
                       XUNIF_ROOTFRAC(5,2)  = 0.19977598999999999D+00,
                       XUNIF_ROOTFRAC(5,3)  = 0.42425212000000001D+00,
                       XUNIF_ROOTFRAC(5,4)  = 0.66126905000000002D+00,
                       XUNIF_ROOTFRAC(5,5)  = 0.86918481000000003D+00,
                       XUNIF_ROOTFRAC(5,6)  = 0.93692555000000000D+00,
                       XUNIF_ROOTFRAC(5,7)  = 0.96132472999999996D+00,
                       XUNIF_ROOTFRAC(5,8)  = 0.97232288000000000D+00,
                       XUNIF_ROOTFRAC(5,9)  = 0.98736486999999995D+00,
                       XUNIF_ROOTFRAC(5,10)  = 0.10000000000000000D+01,
                       XUNIF_ROOTFRAC(5,11)  = 0.10000000000000000D+21,
                       XUNIF_ROOTFRAC(5,12)  = 0.10000000000000000D+21,
                       XUNIF_ROOTFRAC(5,13)  = 0.10000000000000000D+21,
                       XUNIF_ROOTFRAC(5,14)  = 0.10000000000000000D+21,
                       XUNIF_ROOTFRAC(12,1)  = 0.54803459999999998D-01,
                       XUNIF_ROOTFRAC(12,2)  = 0.20133772999999999D+00,
                       XUNIF_ROOTFRAC(12,3)  = 0.42794398000000000D+00,
                       XUNIF_ROOTFRAC(12,4)  = 0.66812364999999996D+00,
                       XUNIF_ROOTFRAC(12,5)  = 0.88161285000000000D+00,
                       XUNIF_ROOTFRAC(12,6)  = 0.95453089000000002D+00,
                       XUNIF_ROOTFRAC(12,7)  = 0.98398490000000005D+00,
                       XUNIF_ROOTFRAC(12,8)  = 0.10000000000000000D+01,
                       XUNIF_ROOTFRAC(12,9)  = 0.10000000000000000D+21,
                       XUNIF_ROOTFRAC(12,10)  = 0.10000000000000000D+21,
                       XUNIF_ROOTFRAC(12,11)  = 0.10000000000000000D+21,
                       XUNIF_ROOTFRAC(12,12)  = 0.10000000000000000D+21,
                       XUNIF_ROOTFRAC(12,13)  = 0.10000000000000000D+21,
                       XUNIF_ROOTFRAC(12,14)  = 0.10000000000000000D+21,
                       XUNIF_RSMIN(5)       = 150.,
                       XUNIF_RSMIN(12)      = 40.,
                       XUNIF_GAMMA(5)       = 0.04,
                       XUNIF_GAMMA(12)      = 0.0,
                       XUNIF_WRMAX_CF(5)    = 0.2,
                       XUNIF_WRMAX_CF(12)   = 0.2,
                       XUNIF_RGL(5)         = 30.,
                       XUNIF_RGL(12)        = 100.,
                       XUNIF_CV(5)          = 0.00002,
                       XUNIF_CV(12)         = 0.00002,
                       XUNIF_Z0_O_Z0H(5)    = 1.,
                       XUNIF_Z0_O_Z0H(12)   = 10.,
                       XUNIF_ALBNIR_VEG(1,1)  = 0.3,
                       XUNIF_ALBNIR_VEG(1,2)  = 0.3,
                       XUNIF_ALBNIR_VEG(1,3)  = 0.3,
                       XUNIF_ALBNIR_VEG(1,4)  = 0.3,
                       XUNIF_ALBNIR_VEG(1,5)  = 0.3,
                       XUNIF_ALBNIR_VEG(1,6)  = 0.3,
                       XUNIF_ALBNIR_VEG(1,7)  = 0.3,
                       XUNIF_ALBNIR_VEG(1,8)  = 0.3,
                       XUNIF_ALBNIR_VEG(1,9)  = 0.3,
                       XUNIF_ALBNIR_VEG(1,10)  = 0.3,
                       XUNIF_ALBNIR_VEG(1,11)  = 0.3,
                       XUNIF_ALBNIR_VEG(1,12)  = 0.3,
                       XUNIF_ALBVIS_VEG(1,1)  = 0.1,
                       XUNIF_ALBVIS_VEG(1,2)  = 0.1,
                       XUNIF_ALBVIS_VEG(1,3)  = 0.1,
                       XUNIF_ALBVIS_VEG(1,4)  = 0.1,
                       XUNIF_ALBVIS_VEG(1,5)  = 0.1,
                       XUNIF_ALBVIS_VEG(1,6)  = 0.1,
                       XUNIF_ALBVIS_VEG(1,7)  = 0.1,
                       XUNIF_ALBVIS_VEG(1,8)  = 0.1,
                       XUNIF_ALBVIS_VEG(1,9)  = 0.1,
                       XUNIF_ALBVIS_VEG(1,10)  = 0.1,
                       XUNIF_ALBVIS_VEG(1,11)  = 0.1,
                       XUNIF_ALBVIS_VEG(1,12)  = 0.1,
                       XUNIF_ALBUV_VEG(1,1)   = 0.0425,
                       XUNIF_ALBUV_VEG(1,2)   = 0.0425,
                       XUNIF_ALBUV_VEG(1,3)   = 0.0425,
                       XUNIF_ALBUV_VEG(1,4)   = 0.0425,
                       XUNIF_ALBUV_VEG(1,5)   = 0.0425,
                       XUNIF_ALBUV_VEG(1,6)   = 0.0425,
                       XUNIF_ALBUV_VEG(1,7)   = 0.0425,
                       XUNIF_ALBUV_VEG(1,8)   = 0.0425,
                       XUNIF_ALBUV_VEG(1,9)   = 0.0425,
                       XUNIF_ALBUV_VEG(1,10)   = 0.0425,
                       XUNIF_ALBUV_VEG(1,11)   = 0.0425,
                       XUNIF_ALBUV_VEG(1,12)   = 0.0425,
                       XUNIF_ALBNIR_SOIL(1,1) = 0.3,
                       XUNIF_ALBNIR_SOIL(1,2) = 0.3,
                       XUNIF_ALBNIR_SOIL(1,3) = 0.3,
                       XUNIF_ALBNIR_SOIL(1,4) = 0.3,
                       XUNIF_ALBNIR_SOIL(1,5) = 0.3,
                       XUNIF_ALBNIR_SOIL(1,6) = 0.3,
                       XUNIF_ALBNIR_SOIL(1,7) = 0.3,
                       XUNIF_ALBNIR_SOIL(1,8) = 0.3,
                       XUNIF_ALBNIR_SOIL(1,9) = 0.3,
                       XUNIF_ALBNIR_SOIL(1,10) = 0.3,
                       XUNIF_ALBNIR_SOIL(1,11) = 0.3,
                       XUNIF_ALBNIR_SOIL(1,12) = 0.3,
                       XUNIF_ALBVIS_SOIL(1,1) = 0.1,
                       XUNIF_ALBVIS_SOIL(1,2) = 0.1,
                       XUNIF_ALBVIS_SOIL(1,3) = 0.1,
                       XUNIF_ALBVIS_SOIL(1,4) = 0.1,
                       XUNIF_ALBVIS_SOIL(1,5) = 0.1,
                       XUNIF_ALBVIS_SOIL(1,6) = 0.1,
                       XUNIF_ALBVIS_SOIL(1,7) = 0.1,
                       XUNIF_ALBVIS_SOIL(1,8) = 0.1,
                       XUNIF_ALBVIS_SOIL(1,9) = 0.1,
                       XUNIF_ALBVIS_SOIL(1,10) = 0.1,
                       XUNIF_ALBVIS_SOIL(1,11) = 0.1,
                       XUNIF_ALBVIS_SOIL(1,12) = 0.1,
                       XUNIF_ALBUV_SOIL(1,1)  = 0.06,
                       XUNIF_ALBUV_SOIL(1,2)  = 0.06,
                       XUNIF_ALBUV_SOIL(1,3)  = 0.06,
                       XUNIF_ALBUV_SOIL(1,4)  = 0.06,
                       XUNIF_ALBUV_SOIL(1,5)  = 0.06,
                       XUNIF_ALBUV_SOIL(1,6)  = 0.06,
                       XUNIF_ALBUV_SOIL(1,7)  = 0.06,
                       XUNIF_ALBUV_SOIL(1,8)  = 0.06,
                       XUNIF_ALBUV_SOIL(1,9)  = 0.06,
                       XUNIF_ALBUV_SOIL(1,10)  = 0.06,
                       XUNIF_ALBUV_SOIL(1,11)  = 0.06,
                       XUNIF_ALBUV_SOIL(1,12)  = 0.06,
                       XUNIF_GMES(5)        = 0.003,
                       XUNIF_RE25(5)        = 0.0000003,
                       XUNIF_BSLAI(5)       = 0.25,
                       XUNIF_LAIMIN(5)      = 0.3,
                       XUNIF_SEFOLD(5)      = 5184000.,
                       XUNIF_GC(5)          = 0.00025,
                       XUNIF_DMAX(5)        = 0.1,
                       XUNIF_F2I(5)         = 0.3,
                       XUNIF_H_TREE(5)      = 12.5,
                       XUNIF_CE_NITRO(5)    = 3.79,
                       XUNIF_CF_NITRO(5)    = 9.84,
                       XUNIF_CNA_NITRO(5)   = 1.3,
                       XUNIF_GNDLITTER(5,1)  = 0.03,
                       XUNIF_GNDLITTER(5,2)  = 0.03,
                       XUNIF_GNDLITTER(5,3)  = 0.03,
                       XUNIF_GNDLITTER(5,4)  = 0.03,
                       XUNIF_GNDLITTER(5,5)  = 0.03,
                       XUNIF_GNDLITTER(5,6)  = 0.03,
                       XUNIF_GNDLITTER(5,7)  = 0.03,
                       XUNIF_GNDLITTER(5,8)  = 0.03,
                       XUNIF_GNDLITTER(5,9)  = 0.03,
                       XUNIF_GNDLITTER(5,10) = 0.03,
                       XUNIF_GNDLITTER(5,11) = 0.03,
                       XUNIF_GNDLITTER(5,12) = 0.03,
                       XUNIF_Z0LITTER(5,1)   = 0.013,
                       XUNIF_Z0LITTER(5,2)   = 0.013,
                       XUNIF_Z0LITTER(5,3)   = 0.013,
                       XUNIF_Z0LITTER(5,4)   = 0.013,
                       XUNIF_Z0LITTER(5,5)   = 0.013,
                       XUNIF_Z0LITTER(5,6)   = 0.013,
                       XUNIF_Z0LITTER(5,7)   = 0.013,
                       XUNIF_Z0LITTER(5,8)   = 0.013,
                       XUNIF_Z0LITTER(5,9)   = 0.013,
                       XUNIF_Z0LITTER(5,10)  = 0.013,
                       XUNIF_Z0LITTER(5,11)  = 0.013,
                       XUNIF_Z0LITTER(5,12)  = 0.013,
                       XUNIF_GMES(12)        = 0.02,
                       XUNIF_RE25(12)        = 0.00000036,
                       XUNIF_BSLAI(12)       = 0.36,
                       XUNIF_LAIMIN(12)      = 0.3,
                       XUNIF_SEFOLD(12)      = 7776000.,
                       XUNIF_GC(12)          = 0.00025,
                       XUNIF_DMAX(12)        = 0.1,
                       XUNIF_F2I(12)         = 0.3,
                       XUNIF_CE_NITRO(12)    = 3.79,
                       XUNIF_CF_NITRO(12)    = 9.84,
                       XUNIF_CNA_NITRO(12)   = 1.3,
                       XUNIF_GNDLITTER(12,1) = 0.0,
                       XUNIF_GNDLITTER(12,2) = 0.0,
                       XUNIF_GNDLITTER(12,3) = 0.0,
                       XUNIF_GNDLITTER(12,4) = 0.0,
                       XUNIF_GNDLITTER(12,5) = 0.0,
                       XUNIF_GNDLITTER(12,6) = 0.0,
                       XUNIF_GNDLITTER(12,7) = 0.0,
                       XUNIF_GNDLITTER(12,8) = 0.0,
                       XUNIF_GNDLITTER(12,9) = 0.0,
                       XUNIF_GNDLITTER(12,10)= 0.0,
                       XUNIF_GNDLITTER(12,11)= 0.0,
                       XUNIF_GNDLITTER(12,12)= 0.0,
                       XUNIF_Z0LITTER(12,1)  = 0.013,
                       XUNIF_Z0LITTER(12,2)  = 0.013,
                       XUNIF_Z0LITTER(12,3)  = 0.013,
                       XUNIF_Z0LITTER(12,4)  = 0.013,
                       XUNIF_Z0LITTER(12,5)  = 0.013,
                       XUNIF_Z0LITTER(12,6)  = 0.013,
                       XUNIF_Z0LITTER(12,7)  = 0.013,
                       XUNIF_Z0LITTER(12,8)  = 0.013,
                       XUNIF_Z0LITTER(12,9)  = 0.013,
                       XUNIF_Z0LITTER(12,10) = 0.013,
                       XUNIF_Z0LITTER(12,11) = 0.013,
                       XUNIF_Z0LITTER(12,12) = 0.013,
/
&NAM_FRAC
                       LECOCLIMAP = F,
                       XUNIF_SEA    = 0.,
                       XUNIF_WATER  = 0.,
                       XUNIF_TOWN   = 0.,
                       XUNIF_NATURE = 1.
/
&NAM_PGD_GRID          CGRID = 'LONLAT REG' 
/
&NAM_LONLAT_REG        XLONMIN = 26.638        , 
                       XLONMAX = 26.638       , 
                       XLATMIN = 67.362          , 
                       XLATMAX = 67.362          , 
                       NLON    = 1            , 
                       NLAT    = 1 
/
&NAM_PGD_SCHEMES       CNATURE = 'ISBA  '    , 
                       CSEA    = 'NONE  '    , 
                       CTOWN   = 'NONE  '    , 
                       CWATER  = 'NONE  ' 
/
&NAM_PGD_ARRANGE_COVER  LWATER_TO_NATURE = T ,
                        LTOWN_TO_ROCK    = T
/
&NAM_ZS                XUNIF_ZS  = 179.
/
&NAM_ISBA
                       XUNIF_CLAY    = 0.10          ,
                       XUNIF_SAND    = 0.90          ,
	               XUNIF_RUNOFFB = 0.20           ,
                       CPEDO_FUNCTION= 'CO84'        ,
                       CISBA         = 'DIF'         ,
                       CPHOTO        = 'NON'         ,
                       NPATCH        = 2            ,
                       NGROUND_LAYER = 14           ,
                       CALBEDO    = "DRY"      ,
	               LMEB          = .TRUE.        ,
                       LTR_ML        = .TRUE.       ,
/
&NAM_MEB_ISBA
                       LMEB_PATCH    = .F., .T.,
                       LFORC_MEASURE = .TRUE.
                       LMEB_LITTER   = .TRUE.
/
&NAM_PREP_SURF_ATM NYEAR  = 2008,
                   NMONTH = 1,
                   NDAY   = 1,
                   XTIME  = 600. 
/
&NAM_PREP_ISBA
                   XHUG_SURF = 0.2,
                   XHUG_ROOT = 0.2,
                   XHUG_DEEP = 0.5,
                   XHUGI_SURF = 0.15,
                   XHUGI_ROOT = 0.15,
                   XHUGI_DEEP = 0.0,
                   XTG_SURF  = 271.15,
                   XTG_ROOT  = 273.15,
                   XTG_DEEP  = 276.15,
/
&NAM_PREP_ISBA_SNOW
                       CSNOW = '3-L',
                       NSNOW_LAYER = 12,
!                       CSNOW = 'CRO',
!                       NSNOW_LAYER = 30,
                       XWSNOW = 72.5,
                       XRSNOW = 250.,
                       XTSNOW = 268.15,
                       XSG1SNOW=-90.0,
                       XSG2SNOW=50.0,
                       XHISTSNOW=0.0,
                       XAGESNOW=3.0,
/
&NAM_IO_OFFLINE        LPRINT  = T                       ,
                       CFORCING_FILETYPE =    'ASCII '   ,
                       CSURF_FILETYPE =       'ASCII '   ,
!                       CTIMESERIES_FILETYPE = 'TEXTE '   ,
                       CTIMESERIES_FILETYPE = 'NETCDF'   ,
                       XTSTEP_SURF = 600.                ,
                       XTSTEP_OUTPUT = 86400.            ,
!                       XTSTEP_OUTPUT = 3600.
/
&NAM_DIAG_SURFn
                       LSURF_BUDGET = T      , 
!                       LSURF_BUDGETC = T      , 
                       N2M          = 2      ,
                       LCOEF        = T      ,
                       LSURF_VARS   = T
/
&NAM_DIAG_SURF_ATMn    LFRAC        = T 
/
&NAM_DIAG_ISBAn        LPGD              = T , 
                       LSURF_EVAP_BUDGET = T , 
                       LSURF_MISC_BUDGET = T ,
                       LPATCH_BUDGET = T     ,
                       LPROSNOW = T
/
&NAM_DIAG_TEBn         LSURF_MISC_BUDGET = T 
/
&NAM_SGH_ISBAn         CRUNOFF    = "DT92"
                       CRAIN    = 'SGH '     ,
                       CHORT    = 'DEF'      ,
/
&NAM_ISBAn
                       CSCOND     = "PL98"     ,
                       CC1DRY     = 'DEF '     ,
                       CSOILFRZ   = 'LWT'      ,
                       CDIFSFCOND = 'DEF '     ,
                       CSNOWRES   = 'RIL'      ,
                       CCPSURF    = 'DRY' 
/
